$RunGauss
%NprocLinda=1
%Mem=16gbgb
%NProcshared=4
#  PW91PW91/gen NMR pop=(full) IOp(10/46=1) Gfprint

Test

0,1
H   -5.935451    0.083726   -0.000000
O   -6.825476   -0.347267   -0.000000
C   -6.677977   -1.688571   -0.000000
C   -7.843214   -2.469821    0.000000
H   -8.800332   -1.957627    0.000000
C   -7.759461   -3.857402    0.000000
H   -8.673262   -4.445999    0.000000
C   -6.511541   -4.502564    0.000000
H   -6.452631   -5.586744    0.000000
C   -5.351301   -3.741354   -0.000000
H   -4.378000   -4.222054   -0.000000
C   -5.411025   -2.332415   -0.000000
C   -4.207306   -1.530927   -0.000000
N   -4.134620   -0.223421    0.000000
C   -2.773526    0.071684    0.000000
C   -2.065698   -1.139653   -0.000000
O   -2.982085   -2.162002   -0.000000
C   -2.080353    1.284906    0.000000
H   -2.609164    2.232447    0.000000
C   -0.682296   -1.233575   -0.000000
H   -0.138807   -2.170838   -0.000000
C   -0.684722    1.233711    0.000000
H   -0.086689    2.138712    0.000000
C   -0.028943   -0.003626   -0.000000
F    1.329858   -0.004895   -0.000000
Bq  -6.592420   -3.098688    1.000000
Bq  -3.232647   -0.996864    1.000000
Bq  -1.385923    0.035574    1.000000

H     0
S   3   1.00
     68.160000                .25500000D-02
     10.246500                .19380000D-01
      2.3464800               .92800000D-01
S   1   1.00
      0.67332000             1.0
S   1   1.00
      0.22466000             1.0
S   1   1.00
      0.08221700             1.0
P   1   1.00
      1.30                   1.0
P   1   1.00
      0.33                   1.0
****
O     0
S   5   1.00
  30664.503                   .21413900D-03
   4573.2014                  .16779800D-02
   1029.5524                  .88814700D-02
    285.90474                 .37281340D-01
     90.369653                .12518867
S   1   1.00
     31.219578               1.000000
S   1   1.00
     11.607766               1.000000
S   1   1.00
      4.5927595              1.000000
S   1   1.00
      1.2711716              1.000000
S   1   1.00
      0.47214017             1.000000
S   1   1.00
      0.17896534             1.000000
P   2   1.00
     78.702943                .42416000D-02
     18.409261                .29868460D-01
P   1   1.00
      5.7530835              1.000000
P   1   1.00
      2.1107114              1.000000
P   1   1.00
      0.83712087             1.000000
P   1   1.00
      0.33907630             1.000000
P   1   1.00
      0.13226310             1.000000
D   1   1.00
      1.40                   1.000000
D   1   1.00
      0.35                   1.000000
****
C     0
S   5   1.00
  16371.074                   .22641833D-03
   2426.9925                  .17844680D-02
    544.54418                 .94901567D-02
    150.80487                 .39660515D-01
     47.708143                .13134026
S   1   1.00
     16.457241               1.000000
S   1   1.00
      6.0845578              1.000000
S   1   1.00
      2.3824631              1.000000
S   1   1.00
      0.6619866              1.000000
S   1   1.00
      0.24698997             1.000000
S   1   1.00
      0.0949873              1.000000
P   2   1.00
     40.790423                .40969752D-02
      9.5034633               .27584766D-01
P   1   1.00
      2.9408357              1.000000
P   1   1.00
      1.0751115              1.000000
P   1   1.00
      0.4267024              1.000000
P   1   1.00
      0.17481926             1.000000
P   1   1.00
      0.07113054             1.000000
D   1   1.00
      1.40                   1.000000
D   1   1.00
      0.35                   1.000000
****
N     0
S   5   1.00
  23274.857                   .21521253D-03
   3468.1830                  .16921400D-02
    777.98843                 .89940700D-02
    215.71976                 .37730390D-01
     68.078031                .12667110
S   1   1.00
     23.424397               1.000000
S   1   1.00
      8.6693766              1.000000
S   1   1.00
      3.4217533              1.000000
S   1   1.00
      0.93125652             1.000000
S   1   1.00
      0.34656886             1.000000
S   1   1.00
      0.13311530             1.000000
P   2   1.00
     60.317240                .39765800D-02
     14.100811                .27641970D-01
P   1   1.00
      4.3877179              1.000000
P   1   1.00
      1.6082717              1.000000
P   1   1.00
      0.63885442             1.000000
P   1   1.00
      0.26035829             1.000000
P   1   1.00
      0.10396545             1.000000
D   1   1.00
      1.40                   1.000000
D   1   1.00
      0.35                   1.000000
****
F     0
S   5   1.00
  37736.000                   .21824900D-03
   5867.0791                  .16332200D-02
   1332.4679                  .86817800D-02
    369.44060                 .36543390D-01
    116.84300                 .12310963
S   1   1.00
     40.348770               1.000000
S   1   1.00
     14.966270               1.000000
S   1   1.00
      5.8759295              1.000000
S   1   1.00
      1.6533352              1.000000
S   1   1.00
      0.61083583             1.000000
S   1   1.00
      0.23328922             1.000000
P   2   1.00
    102.26192                 .42732300D-02
     23.938381                .30534308D-01
P   1   1.00
      7.5205914              1.000000
P   1   1.00
      2.7724566              1.000000
P   1   1.00
      1.1000514              1.000000
P   1   1.00
      0.44677512             1.000000
P   1   1.00
      0.17187009             1.000000
D   1   1.00
      1.40                   1.000000
D   1   1.00
      0.35                   1.000000
****
